<?xml version="1.0" encoding="UTF-8"?>

<!-- generated on Tue Jun 28 09:11:46 2016 by SUMO polyconvert Version 0.25.0
<?xml version="1.0" encoding="UTF-8"?>

<configuration xmlns:xsi="http://www.w3.org/2001/XMLSchema-instance" xsi:noNamespaceSchemaLocation="http://sumo.dlr.de/xsd/polyconvertConfiguration.xsd">

    <input>
        <net-file value="map.net.xml"/>
        <osm-files value="map_gdv2.osm"/>
    </input>

    <output>
        <output-file value="map.poly.xml"/>
    </output>

    <processing>
        <poi-layer-offset value="5"/>
    </processing>

</configuration>
-->

<additional xmlns:xsi="http://www.w3.org/2001/XMLSchema-instance" xsi:noNamespaceSchemaLocation="http://sumo.dlr.de/xsd/additional_file.xsd">
    <location netOffset="-342417.00,-6025704.58" convBoundary="-62.41,-6021.59,23167.26,5727.72" origBoundary="18.573682,54.307246,18.934009,54.407054" projParameter="+proj=utm +zone=34 +ellps=WGS84 +datum=WGS84 +units=m +no_defs"/>

    <poly id="100156002" type="building" color="51,128,255" fill="1" layer="-1.00" shape="1379.66,3350.98 1385.41,3343.89 1391.36,3348.70 1385.62,3355.79 1379.66,3350.98"/>
    <poly id="100156006" type="building" color="51,128,255" fill="1" layer="-1.00" shape="1394.56,3363.98 1400.79,3356.29 1406.80,3361.13 1400.56,3368.82 1394.56,3363.98"/>
    <poly id="100156008" type="building" color="51,128,255" fill="1" layer="-1.00" shape="1410.80,3378.35 1416.59,3371.21 1421.76,3375.38 1415.98,3382.53 1410.80,3378.35"/>
    <poly id="100156012" type="building" color="51,128,255" fill="1" layer="-1.00" shape="1426.10,3391.72 1432.34,3384.01 1438.08,3388.62 1431.83,3396.33 1426.10,3391.72"/>
    <poly id="100156014" type="building" color="51,128,255" fill="1" layer="-1.00" shape="1441.15,3404.02 1447.28,3396.46 1456.71,3404.08 1450.59,3411.64 1441.15,3404.02"/>
    <poly id="100156023" type="building" color="51,128,255" fill="1" layer="-1.00" shape="1454.32,3390.41 1460.38,3382.93 1465.46,3387.03 1459.40,3394.50 1454.32,3390.41"/>
    <poly id="100156028" type="building" color="51,128,255" fill="1" layer="-1.00" shape="1439.35,3377.87 1445.70,3370.02 1451.78,3374.92 1445.42,3382.76 1439.35,3377.87"/>
    <poly id="100156033" type="building" color="51,128,255" fill="1" layer="-1.00" shape="1390.69,3336.86 1396.35,3329.89 1401.26,3333.84 1395.61,3340.83 1390.69,3336.86"/>
    <poly id="100156036" type="building" color="51,128,255" fill="1" layer="-1.00" shape="1406.66,3350.21 1412.91,3342.49 1417.89,3346.52 1411.64,3354.22 1406.66,3350.21"/>
    <poly id="100156042" type="building" color="51,128,255" fill="1" layer="-1.00" shape="1419.80,3361.22 1425.61,3354.05 1432.37,3359.50 1426.56,3366.67 1419.80,3361.22"/>
    <poly id="100156047" type="building" color="51,128,255" fill="1" layer="-1.00" shape="1401.60,3329.15 1408.36,3320.80 1413.62,3325.05 1406.86,3333.38 1401.60,3329.15"/>
    <poly id="100156050" type="building" color="51,128,255" fill="1" layer="-1.00" shape="1423.62,3342.89 1429.51,3335.63 1434.67,3339.80 1428.79,3347.06 1423.62,3342.89"/>
    <poly id="100156056" type="building" color="51,128,255" fill="1" layer="-1.00" shape="1439.38,3356.50 1445.93,3348.41 1451.27,3352.73 1444.73,3360.80 1439.38,3356.50"/>
    <poly id="100156060" type="building" color="51,128,255" fill="1" layer="-1.00" shape="1455.81,3369.03 1462.03,3361.35 1470.11,3367.86 1463.89,3375.55 1455.81,3369.03"/>
    <poly id="100156066" type="building" color="51,128,255" fill="1" layer="-1.00" shape="1474.33,3373.93 1478.74,3368.49 1484.78,3373.37 1480.37,3378.81 1474.33,3373.93"/>
    <poly id="100156071" type="building" color="51,128,255" fill="1" layer="-1.00" shape="1424.12,3450.94 1427.10,3447.27 1431.44,3450.77 1428.46,3454.44 1424.12,3450.94"/>
    <poly id="100156076" type="building" color="51,128,255" fill="1" layer="-1.00" shape="1415.28,3429.43 1421.09,3422.25 1436.43,3434.62 1430.62,3441.79 1415.28,3429.43"/>
    <poly id="100156086" type="building" color="51,128,255" fill="1" layer="-1.00" shape="1338.88,3400.08 1344.07,3393.66 1350.03,3398.46 1344.82,3404.87 1338.88,3400.08"/>
    <poly id="100156089" type="building" color="51,128,255" fill="1" layer="-1.00" shape="1381.20,3416.43 1386.40,3420.61 1381.22,3427.00 1376.03,3422.82 1381.20,3416.43"/>
    <poly id="100156097" type="building" color="51,128,255" fill="1" layer="-1.00" shape="1383.92,3437.01 1389.60,3430.05 1395.11,3434.52 1389.43,3441.49 1383.92,3437.01"/>
    <poly id="100156099" type="building" color="51,128,255" fill="1" layer="-1.00" shape="1406.28,3408.20 1414.09,3414.56 1408.35,3421.57 1400.54,3415.20 1406.28,3408.20"/>
    <poly id="100156105" type="building" color="51,128,255" fill="1" layer="-1.00" shape="1386.51,3394.75 1391.69,3398.93 1386.28,3405.61 1381.10,3401.43 1386.51,3394.75"/>
    <poly id="100156109" type="building" color="51,128,255" fill="1" layer="-1.00" shape="1370.01,3380.85 1375.25,3385.08 1369.42,3392.26 1364.18,3388.03 1370.01,3380.85"/>
    <poly id="100156116" type="building" color="51,128,255" fill="1" layer="-1.00" shape="1383.83,3365.00 1388.69,3368.91 1382.66,3376.36 1377.80,3372.44 1383.83,3365.00"/>
    <poly id="100156117" type="building" color="51,128,255" fill="1" layer="-1.00" shape="1400.34,3377.73 1405.14,3381.60 1399.26,3388.86 1394.46,3384.99 1400.34,3377.73"/>
    <poly id="100156122" type="building" color="51,128,255" fill="1" layer="-1.00" shape="1416.98,3395.15 1425.31,3401.93 1420.46,3407.86 1412.13,3401.07 1416.98,3395.15"/>
    <poly id="100156818" type="building" color="51,128,255" fill="1" layer="-1.00" shape="1391.36,3348.70 1397.32,3353.50 1391.57,3360.59 1385.62,3355.79 1391.36,3348.70"/>
    <poly id="100156819" type="building" color="51,128,255" fill="1" layer="-1.00" shape="1406.80,3361.13 1412.80,3365.97 1406.57,3373.67 1400.56,3368.82 1406.80,3361.13"/>
    <poly id="100156820" type="building" color="51,128,255" fill="1" layer="-1.00" shape="1421.76,3375.38 1426.94,3379.56 1421.16,3386.71 1415.98,3382.53 1421.76,3375.38"/>
    <poly id="100156821" type="building" color="51,128,255" fill="1" layer="-1.00" shape="1438.08,3388.62 1443.81,3393.25 1437.57,3400.96 1431.83,3396.33 1438.08,3388.62"/>
    <poly id="100156822" type="building" color="51,128,255" fill="1" layer="-1.00" shape="1413.62,3325.05 1418.86,3329.28 1412.11,3337.63 1406.86,3333.38 1413.62,3325.05"/>
    <poly id="100156823" type="building" color="51,128,255" fill="1" layer="-1.00" shape="1434.67,3339.80 1439.85,3343.96 1433.96,3351.22 1428.79,3347.06 1434.67,3339.80"/>
    <poly id="100156824" type="building" color="51,128,255" fill="1" layer="-1.00" shape="1451.27,3352.73 1456.62,3357.03 1450.07,3365.12 1444.73,3360.80 1451.27,3352.73"/>
    <poly id="100156825" type="building" color="51,128,255" fill="1" layer="-1.00" shape="1478.74,3368.49 1483.15,3363.05 1489.19,3367.93 1484.78,3373.37 1478.74,3368.49"/>
    <poly id="100156826" type="building" color="51,128,255" fill="1" layer="-1.00" shape="1465.46,3387.03 1470.53,3391.12 1464.48,3398.60 1459.40,3394.50 1465.46,3387.03"/>
    <poly id="100156827" type="building" color="51,128,255" fill="1" layer="-1.00" shape="1451.78,3374.92 1457.85,3379.82 1451.50,3387.67 1445.42,3382.76 1451.78,3374.92"/>
    <poly id="100156828" type="building" color="51,128,255" fill="1" layer="-1.00" shape="1432.37,3359.50 1439.12,3364.93 1433.31,3372.12 1426.56,3366.67 1432.37,3359.50"/>
    <poly id="100156829" type="building" color="51,128,255" fill="1" layer="-1.00" shape="1417.89,3346.52 1422.87,3350.53 1416.62,3358.24 1411.64,3354.22 1417.89,3346.52"/>
    <poly id="100156830" type="building" color="51,128,255" fill="1" layer="-1.00" shape="1401.26,3333.84 1406.18,3337.81 1400.52,3344.79 1395.61,3340.83 1401.26,3333.84"/>
    <poly id="100162933" type="building" color="51,128,255" fill="1" layer="-1.00" shape="1409.04,3310.97 1415.11,3303.79 1421.73,3309.38 1415.65,3316.55 1409.04,3310.97"/>
    <poly id="100162935" type="building" color="51,128,255" fill="1" layer="-1.00" shape="1435.19,3328.74 1441.92,3320.79 1447.18,3325.23 1440.45,3333.17 1435.19,3328.74"/>
    <poly id="100162937" type="building" color="51,128,255" fill="1" layer="-1.00" shape="1450.33,3340.79 1456.74,3333.21 1462.63,3338.16 1456.20,3345.74 1450.33,3340.79"/>
    <poly id="100162940" type="building" color="51,128,255" fill="1" layer="-1.00" shape="1468.64,3355.50 1474.92,3348.09 1479.78,3352.19 1473.51,3359.61 1468.64,3355.50"/>
    <poly id="100162942" type="building" color="51,128,255" fill="1" layer="-1.00" shape="1424.40,3297.92 1430.91,3290.23 1435.32,3293.95 1428.81,3301.63 1424.40,3297.92"/>
    <poly id="100162944" type="building" color="51,128,255" fill="1" layer="-1.00" shape="1437.67,3307.99 1443.54,3301.05 1449.78,3306.32 1443.91,3313.24 1437.67,3307.99"/>
    <poly id="100162947" type="building" color="51,128,255" fill="1" layer="-1.00" shape="1454.38,3321.74 1460.64,3314.36 1467.28,3319.95 1461.02,3327.34 1454.38,3321.74"/>
    <poly id="100162950" type="building" color="51,128,255" fill="1" layer="-1.00" shape="1473.56,3339.10 1480.58,3330.81 1485.47,3334.93 1478.45,3343.22 1473.56,3339.10"/>
    <poly id="100162952" type="building" color="51,128,255" fill="1" layer="-1.00" shape="1491.61,3351.03 1498.89,3342.43 1505.90,3348.33 1498.61,3356.94 1491.61,3351.03"/>
    <poly id="100162955" type="building" color="51,128,255" fill="1" layer="-1.00" shape="1484.42,3323.43 1490.29,3316.50 1497.23,3322.36 1491.37,3329.29 1484.42,3323.43"/>
    <poly id="100162958" type="building" color="51,128,255" fill="1" layer="-1.00" shape="1469.04,3310.91 1475.35,3303.46 1481.52,3308.67 1475.21,3316.13 1469.04,3310.91"/>
    <poly id="100162960" type="building" color="51,128,255" fill="1" layer="-1.00" shape="1451.38,3296.46 1457.21,3289.57 1462.12,3293.72 1456.29,3300.60 1451.38,3296.46"/>
    <poly id="100162964" type="building" color="51,128,255" fill="1" layer="-1.00" shape="1435.61,3282.78 1440.91,3276.54 1445.58,3280.48 1440.29,3286.73 1435.61,3282.78"/>
    <poly id="100162967" type="building" color="51,128,255" fill="1" layer="-1.00" shape="1450.52,3275.04 1456.93,3267.47 1462.64,3272.29 1456.22,3279.86 1450.52,3275.04"/>
    <poly id="100162969" type="building" color="51,128,255" fill="1" layer="-1.00" shape="1462.38,3265.49 1467.92,3259.12 1467.30,3258.60 1471.65,3253.57 1475.31,3256.69 1476.12,3255.74 1478.72,3257.94 1477.91,3258.90 1480.99,3261.61 1476.63,3266.68 1476.53,3266.59 1471.02,3272.94 1462.38,3265.49"/>
    <poly id="100162971" type="building" color="51,128,255" fill="1" layer="-1.00" shape="1467.50,3289.06 1474.92,3280.30 1479.84,3284.45 1472.42,3293.20 1467.50,3289.06"/>
    <poly id="100162974" type="building" color="51,128,255" fill="1" layer="-1.00" shape="1483.51,3301.23 1490.12,3293.42 1495.46,3297.93 1488.85,3305.74 1483.51,3301.23"/>
    <poly id="100162977" type="building" color="51,128,255" fill="1" layer="-1.00" shape="1500.15,3315.49 1507.32,3307.02 1512.36,3311.26 1505.18,3319.74 1500.15,3315.49"/>
    <poly id="100162980" type="building" color="51,128,255" fill="1" layer="-1.00" shape="1513.60,3326.21 1519.99,3318.66 1526.72,3324.35 1520.33,3331.88 1513.60,3326.21"/>
    <poly id="100162981" type="building" color="51,128,255" fill="1" layer="-1.00" shape="1421.73,3309.38 1428.35,3314.97 1422.28,3322.13 1415.65,3316.55 1421.73,3309.38"/>
    <poly id="100162983" type="building" color="51,128,255" fill="1" layer="-1.00" shape="1435.32,3293.95 1439.72,3297.66 1433.21,3305.34 1428.81,3301.63 1435.32,3293.95"/>
    <poly id="100162984" type="building" color="51,128,255" fill="1" layer="-1.00" shape="1449.78,3306.32 1456.03,3311.58 1450.15,3318.51 1443.91,3313.24 1449.78,3306.32"/>
    <poly id="100162985" type="building" color="51,128,255" fill="1" layer="-1.00" shape="1467.28,3319.95 1473.92,3325.55 1467.66,3332.93 1461.02,3327.34 1467.28,3319.95"/>
    <poly id="100162987" type="building" color="51,128,255" fill="1" layer="-1.00" shape="1485.47,3334.93 1490.36,3339.05 1483.34,3347.34 1478.45,3343.22 1485.47,3334.93"/>
    <poly id="100162988" type="building" color="51,128,255" fill="1" layer="-1.00" shape="1498.89,3342.43 1506.18,3333.84 1513.19,3339.74 1505.90,3348.33 1498.89,3342.43"/>
    <poly id="100162991" type="building" color="51,128,255" fill="1" layer="-1.00" shape="1479.78,3352.19 1484.65,3356.30 1478.37,3363.71 1473.51,3359.61 1479.78,3352.19"/>
    <poly id="100162993" type="building" color="51,128,255" fill="1" layer="-1.00" shape="1462.63,3338.16 1468.51,3343.13 1462.09,3350.71 1456.20,3345.74 1462.63,3338.16"/>
    <poly id="100162997" type="building" color="51,128,255" fill="1" layer="-1.00" shape="1447.18,3325.23 1452.43,3329.66 1445.71,3337.59 1440.45,3333.17 1447.18,3325.23"/>
    <poly id="100162999" type="building" color="51,128,255" fill="1" layer="-1.00" shape="1445.58,3280.48 1450.26,3284.43 1444.96,3290.67 1440.29,3286.73 1445.58,3280.48"/>
    <poly id="100163003" type="building" color="51,128,255" fill="1" layer="-1.00" shape="1462.12,3293.72 1467.04,3297.86 1461.21,3304.76 1456.29,3300.60 1462.12,3293.72"/>
    <poly id="100163004" type="building" color="51,128,255" fill="1" layer="-1.00" shape="1481.52,3308.67 1487.70,3313.87 1481.39,3321.33 1475.21,3316.13 1481.52,3308.67"/>
    <poly id="100163007" type="building" color="51,128,255" fill="1" layer="-1.00" shape="1497.23,3322.36 1504.17,3328.21 1498.31,3335.14 1491.37,3329.29 1497.23,3322.36"/>
    <poly id="100163012" type="building" color="51,128,255" fill="1" layer="-1.00" shape="1512.36,3311.26 1517.39,3315.51 1510.22,3323.98 1505.18,3319.74 1512.36,3311.26"/>
    <poly id="100163013" type="building" color="51,128,255" fill="1" layer="-1.00" shape="1495.46,3297.93 1500.81,3302.44 1494.19,3310.25 1488.85,3305.74 1495.46,3297.93"/>
    <poly id="100163019" type="building" color="51,128,255" fill="1" layer="-1.00" shape="1479.84,3284.45 1484.76,3288.61 1477.34,3297.36 1472.42,3293.20 1479.84,3284.45"/>
    <poly id="100163020" type="building" color="51,128,255" fill="1" layer="-1.00" shape="1462.64,3272.29 1468.34,3277.11 1461.93,3284.67 1456.22,3279.86 1462.64,3272.29"/>
    <poly id="100163291" type="building" color="51,128,255" fill="1" layer="-1.00" shape="1515.09,3195.74 1532.69,3172.02 1543.59,3169.71 1545.45,3160.59 1549.79,3161.21 1552.94,3151.62 1619.03,3165.57 1610.12,3180.69 1602.76,3205.04 1585.42,3190.37 1563.85,3217.06 1567.32,3220.01 1557.85,3229.83 1515.09,3195.74"/>
    <poly id="100163292" type="building" color="51,128,255" fill="1" layer="-1.00" shape="1638.56,3212.09 1657.49,3196.42 1666.80,3207.17 1647.87,3222.84 1638.56,3212.09"/>
    <poly id="100223963" type="building" color="51,128,255" fill="1" layer="-1.00" shape="1713.29,3506.08 1622.79,3461.39 1448.87,3645.62 1491.51,3680.27 1593.53,3565.46 1604.44,3575.61 1623.43,3557.67 1659.71,3530.78 1713.29,3506.08"/>
    <poly id="100223964" type="building" color="51,128,255" fill="1" layer="-1.00" shape="990.92,3892.26 979.17,3883.01 989.75,3869.59 978.08,3860.47 980.86,3856.94 983.04,3856.92 984.54,3857.11 986.50,3857.60 988.15,3858.21 990.35,3859.41 992.04,3860.59 993.05,3861.59 992.93,3861.75 993.99,3863.03 995.50,3865.12 1001.03,3864.46 1006.27,3868.65 1005.76,3873.35 990.92,3892.26"/>
    <poly id="100223965" type="building" color="51,128,255" fill="1" layer="-1.00" shape="1025.21,3956.62 1031.56,3948.42 1046.72,3960.11 1040.37,3968.31 1025.21,3956.62"/>
    <poly id="100223966" type="building" color="51,128,255" fill="1" layer="-1.00" shape="896.36,3860.24 909.33,3844.94 918.81,3852.93 905.84,3868.24 896.36,3860.24"/>
    <poly id="100223967" type="building" color="51,128,255" fill="1" layer="-1.00" shape="909.33,3844.94 922.30,3829.63 931.77,3837.63 918.81,3852.93 909.33,3844.94"/>
    <poly id="100223969" type="building" color="51,128,255" fill="1" layer="-1.00" shape="676.22,3785.66 711.17,3741.43 717.82,3746.66 725.54,3752.73 696.76,3789.14 700.02,3791.70 692.92,3800.69 684.85,3810.90 675.22,3803.32 684.22,3791.96 676.22,3785.66"/>
    <poly id="100223970" type="building" color="51,128,255" fill="1" layer="-1.00" shape="710.74,3811.55 745.15,3767.10 752.04,3772.37 759.45,3778.00 730.42,3815.46 733.35,3817.77 728.51,3824.20 718.64,3836.38 709.03,3828.82 718.11,3817.34 710.74,3811.55"/>
    <poly id="100223972" type="building" color="51,128,255" fill="1" layer="-1.00" shape="890.35,3996.33 891.61,3994.80 902.70,3981.45 903.77,3980.17 914.33,3988.89 900.91,4005.05 890.35,3996.33"/>
    <poly id="100223973" type="building" color="51,128,255" fill="1" layer="-1.00" shape="845.19,4030.27 852.45,4021.34 862.51,4029.47 855.24,4038.41 845.19,4030.27"/>
    <poly id="100223975" type="building" color="51,128,255" fill="0" layer="-1.00" shape="885.68,3942.63 889.48,3953.89 893.72,3966.98"/>
    <poly id="100223976" type="building" color="51,128,255" fill="0" layer="-1.00" shape="763.13,4095.94 771.38,4102.54 781.26,4110.45 814.03,4136.60 821.70,4138.09 828.06,4135.83 835.77,4130.01 875.62,4079.88 876.85,4073.11 873.11,4066.52 841.31,4044.25 836.33,4044.13 781.26,4110.45"/>
    <poly id="100223979" type="building" color="51,128,255" fill="1" layer="-1.00" shape="710.76,4248.80 718.04,4238.91 727.95,4237.98 741.75,4247.73 728.31,4265.42 718.73,4259.04 715.90,4262.06 708.12,4257.06 712.58,4250.48 710.76,4248.80"/>
    <poly id="100223980" type="building" color="51,128,255" fill="1" layer="-1.00" shape="764.17,4253.39 767.80,4248.01 776.78,4253.84 773.43,4258.62 764.17,4253.39"/>
    <poly id="100223982" type="building" color="51,128,255" fill="1" layer="-1.00" shape="777.12,4262.39 780.90,4257.01 778.09,4255.05 781.48,4250.22 784.96,4252.65 788.99,4246.93 799.47,4254.27 810.27,4238.92 819.20,4245.19 828.29,4232.28 839.64,4240.23 808.54,4284.41 777.12,4262.39"/>
    <poly id="100223983" type="building" color="51,128,255" fill="1" layer="-1.00" shape="695.23,4218.88 696.37,4209.50 720.59,4207.78 720.40,4210.71 745.64,4202.69 745.69,4203.84 752.22,4224.82 739.33,4224.38 739.22,4221.17 724.83,4219.92 724.93,4222.83 695.23,4218.88"/>
    <poly id="100223989" type="building" color="51,128,255" fill="0" layer="-1.00" shape="645.32,4270.59 684.40,4291.76 707.55,4309.37 676.15,4349.87 720.95,4384.26 781.19,4305.67 763.44,4291.68"/>
    <poly id="100225143" type="building" color="51,128,255" fill="1" layer="-1.00" shape="850.28,4378.00 890.65,4404.91 878.42,4433.40 903.72,4446.10 902.69,4467.14 896.32,4483.73 879.67,4510.82 806.75,4463.23 850.28,4378.00"/>
    <poly id="100225144" type="building" color="51,128,255" fill="0" layer="-1.00" shape="910.20,4468.30 902.69,4467.14"/>
    <poly id="100732363" type="building" color="51,128,255" fill="1" layer="-1.00" shape="1180.15,4238.39 1185.18,4256.60 1171.25,4260.44 1166.22,4242.23 1180.15,4238.39"/>
    <poly id="100732371" type="building" color="51,128,255" fill="1" layer="-1.00" shape="1175.12,4220.17 1180.15,4238.39 1166.22,4242.23 1161.18,4224.00 1175.12,4220.17"/>
    <poly id="100732372" type="building" color="51,128,255" fill="1" layer="-1.00" shape="1170.08,4201.95 1175.12,4220.17 1161.18,4224.00 1156.14,4205.79 1170.08,4201.95"/>
    <poly id="100732379" type="building" color="51,128,255" fill="1" layer="-1.00" shape="1165.05,4183.73 1170.08,4201.95 1156.14,4205.79 1151.11,4187.57 1165.05,4183.73"/>
    <poly id="100732384" type="building" color="51,128,255" fill="1" layer="-1.00" shape="1160.01,4165.52 1165.05,4183.73 1151.11,4187.57 1146.08,4169.35 1160.01,4165.52"/>
    <poly id="100732397" type="building" color="51,128,255" fill="1" layer="-1.00" shape="1292.13,4290.53 1306.44,4293.35 1303.86,4306.39 1289.54,4303.56 1292.13,4290.53"/>
    <poly id="100732403" type="building" color="51,128,255" fill="1" layer="-1.00" shape="1277.81,4287.70 1292.13,4290.53 1289.54,4303.56 1275.22,4300.73 1277.81,4287.70"/>
    <poly id="100732405" type="building" color="51,128,255" fill="1" layer="-1.00" shape="1263.50,4284.87 1277.81,4287.70 1275.22,4300.73 1260.91,4297.90 1263.50,4284.87"/>
    <poly id="100732406" type="building" color="51,128,255" fill="1" layer="-1.00" shape="1249.18,4282.04 1263.50,4284.87 1260.91,4297.90 1246.59,4295.07 1249.18,4282.04"/>
    <poly id="100732408" type="building" color="51,128,255" fill="1" layer="-1.00" shape="1234.87,4279.21 1249.18,4282.04 1246.59,4295.07 1232.28,4292.24 1234.87,4279.21"/>
    <poly id="100732411" type="building" color="51,128,255" fill="1" layer="-1.00" shape="1220.55,4276.38 1234.87,4279.21 1232.28,4292.24 1217.96,4289.41 1220.55,4276.38"/>
    <poly id="100732417" type="building" color="51,128,255" fill="1" layer="-1.00" shape="1174.48,4295.68 1164.80,4286.84 1176.13,4274.46 1185.82,4283.29 1174.48,4295.68"/>
    <poly id="100732419" type="building" color="51,128,255" fill="1" layer="-1.00" shape="1163.15,4308.06 1153.47,4299.24 1164.80,4286.84 1174.48,4295.68 1163.15,4308.06"/>
    <poly id="100732421" type="building" color="51,128,255" fill="1" layer="-1.00" shape="1151.82,4320.44 1142.13,4311.62 1153.47,4299.24 1163.15,4308.06 1151.82,4320.44"/>
    <poly id="100732424" type="building" color="51,128,255" fill="1" layer="-1.00" shape="1140.49,4332.82 1130.80,4324.00 1142.13,4311.62 1151.82,4320.44 1140.49,4332.82"/>
    <poly id="100732426" type="building" color="51,128,255" fill="1" layer="-1.00" shape="1129.15,4345.20 1119.47,4336.38 1130.80,4324.00 1140.49,4332.82 1129.15,4345.20"/>
    <poly id="100732432" type="building" color="51,128,255" fill="1" layer="-1.00" shape="1084.30,4358.76 1101.92,4358.50 1102.10,4370.91 1084.48,4371.17 1084.30,4358.76"/>
    <poly id="100732435" type="building" color="51,128,255" fill="1" layer="-1.00" shape="1066.68,4359.02 1084.30,4358.76 1084.48,4371.17 1066.87,4371.44 1066.68,4359.02"/>
    <poly id="100732437" type="building" color="51,128,255" fill="1" layer="-1.00" shape="1049.06,4359.29 1066.68,4359.02 1066.87,4371.44 1049.24,4371.69 1049.06,4359.29"/>
    <poly id="100732440" type="building" color="51,128,255" fill="1" layer="-1.00" shape="1031.44,4359.55 1049.06,4359.29 1049.24,4371.69 1031.63,4371.96 1031.44,4359.55"/>
    <poly id="100732441" type="building" color="51,128,255" fill="1" layer="-1.00" shape="1013.82,4359.82 1031.44,4359.55 1031.63,4371.96 1014.01,4372.23 1013.82,4359.82"/>
    <poly id="100732448" type="building" color="51,128,255" fill="1" layer="-1.00" shape="982.99,4404.02 971.74,4399.03 979.17,4382.38 990.42,4387.37 982.99,4404.02"/>
    <poly id="100732449" type="building" color="51,128,255" fill="1" layer="-1.00" shape="975.58,4420.67 964.32,4415.67 971.74,4399.03 982.99,4404.02 975.58,4420.67"/>
    <poly id="100732451" type="building" color="51,128,255" fill="1" layer="-1.00" shape="968.15,4437.31 956.90,4432.33 964.32,4415.67 975.58,4420.67 968.15,4437.31"/>
    <poly id="100732453" type="building" color="51,128,255" fill="1" layer="-1.00" shape="960.74,4453.97 949.48,4448.98 956.90,4432.33 968.15,4437.31 960.74,4453.97"/>
    <poly id="100732460" type="building" color="51,128,255" fill="1" layer="-1.00" shape="1127.60,4391.05 1122.56,4376.65 1136.98,4372.32 1141.99,4386.55 1127.60,4391.05"/>
    <poly id="100732461" type="building" color="51,128,255" fill="1" layer="-1.00" shape="1132.63,4405.47 1127.60,4391.05 1141.99,4386.55 1147.01,4400.78 1132.63,4405.47"/>
    <poly id="100732463" type="building" color="51,128,255" fill="1" layer="-1.00" shape="1137.67,4419.87 1132.63,4405.47 1147.01,4400.78 1152.03,4415.01 1137.67,4419.87"/>
    <poly id="100732464" type="building" color="51,128,255" fill="1" layer="-1.00" shape="1142.71,4434.29 1137.67,4419.87 1152.03,4415.01 1157.04,4429.25 1142.71,4434.29"/>
    <poly id="100732468" type="building" color="51,128,255" fill="1" layer="-1.00" shape="1147.75,4448.70 1142.71,4434.29 1157.04,4429.25 1162.05,4443.47 1147.75,4448.70"/>
    <poly id="100732470" type="building" color="51,128,255" fill="1" layer="-1.00" shape="1152.78,4463.11 1147.75,4448.70 1162.05,4443.47 1167.07,4457.70 1152.78,4463.11"/>
    <poly id="100732476" type="building" color="51,128,255" fill="1" layer="-1.00" shape="1347.66,4312.98 1334.53,4327.45 1309.35,4310.69 1324.12,4293.24 1347.66,4312.98"/>
    <poly id="100732494" type="building" color="51,128,255" fill="0" layer="-1.00" shape="1524.68,4346.48 1518.55,4325.87"/>
    <poly id="100732496" type="building" color="51,128,255" fill="0" layer="-1.00" shape="1436.16,4306.83 1518.55,4325.87 1542.97,4328.88"/>
    <poly id="101371685" type="building" color="51,128,255" fill="1" layer="-1.00" shape="1660.40,4446.35 1663.89,4464.58 1650.91,4467.07 1647.42,4448.83 1660.40,4446.35"/>
    <poly id="101371686" type="building" color="51,128,255" fill="1" layer="-1.00" shape="1656.85,4427.85 1660.40,4446.35 1647.42,4448.83 1643.88,4430.34 1656.85,4427.85"/>
    <poly id="101371687" type="building" color="51,128,255" fill="1" layer="-1.00" shape="1653.32,4409.46 1656.85,4427.85 1643.88,4430.34 1640.36,4411.96 1653.32,4409.46"/>
    <poly id="101371688" type="building" color="51,128,255" fill="1" layer="-1.00" shape="1649.83,4391.32 1653.32,4409.46 1640.36,4411.96 1636.86,4393.80 1649.83,4391.32"/>
    <poly id="101371689" type="building" color="51,128,255" fill="1" layer="-1.00" shape="1646.19,4372.37 1649.83,4391.32 1636.86,4393.80 1633.22,4374.85 1646.19,4372.37"/>
    <poly id="101371690" type="building" color="51,128,255" fill="1" layer="-1.00" shape="1601.21,4316.85 1619.56,4319.90 1615.85,4334.94 1597.66,4331.81 1601.21,4316.85"/>
    <poly id="101371691" type="building" color="51,128,255" fill="1" layer="-1.00" shape="1582.87,4313.81 1601.21,4316.85 1597.66,4331.81 1579.47,4328.68 1582.87,4313.81"/>
    <poly id="101371692" type="building" color="51,128,255" fill="1" layer="-1.00" shape="1564.52,4310.76 1582.87,4313.81 1579.47,4328.68 1561.27,4325.56 1564.52,4310.76"/>
    <poly id="101371693" type="building" color="51,128,255" fill="1" layer="-1.00" shape="1546.18,4307.72 1564.52,4310.76 1561.27,4325.56 1543.08,4322.43 1546.18,4307.72"/>
    <poly id="101371694" type="building" color="51,128,255" fill="1" layer="-1.00" shape="1686.24,4264.17 1697.52,4251.58 1707.51,4260.48 1696.23,4273.07 1686.24,4264.17"/>
    <poly id="101371695" type="building" color="51,128,255" fill="1" layer="-1.00" shape="1674.96,4276.76 1686.24,4264.17 1696.23,4273.07 1684.95,4285.66 1674.96,4276.76"/>
    <poly id="101371696" type="building" color="51,128,255" fill="1" layer="-1.00" shape="1663.68,4289.35 1674.96,4276.76 1684.95,4285.66 1673.67,4298.25 1663.68,4289.35"/>
    <poly id="101371697" type="building" color="51,128,255" fill="1" layer="-1.00" shape="1652.41,4301.94 1663.68,4289.35 1673.67,4298.25 1662.39,4310.84 1652.41,4301.94"/>
    <poly id="101371698" type="building" color="51,128,255" fill="1" layer="-1.00" shape="1641.13,4314.53 1652.41,4301.94 1662.39,4310.84 1651.11,4323.43 1641.13,4314.53"/>
    <poly id="101371699" type="building" color="51,128,255" fill="1" layer="-1.00" shape="1672.37,4337.81 1676.77,4332.66 1685.27,4339.85 1680.88,4345.00 1672.37,4337.81"/>
    <poly id="101371700" type="building" color="51,128,255" fill="1" layer="-1.00" shape="1676.77,4332.66 1681.31,4327.31 1689.81,4334.52 1685.27,4339.85 1676.77,4332.66"/>
    <poly id="102008490" type="building" color="51,128,255" fill="0" layer="-1.00" shape="3086.05,4248.57 3084.23,4116.15"/>
    <poly id="102146994" type="building" color="51,128,255" fill="0" layer="-1.00" shape="2348.98,3760.10 2327.53,3803.46 2309.30,3833.57"/>
    <poly id="102413611" type="building" color="51,128,255" fill="0" layer="-1.00" shape="2348.98,3760.10 2340.47,3759.78 2330.20,3757.85 2313.84,3753.23 2304.33,3749.14"/>
    <poly id="102720099" type="building" color="51,128,255" fill="1" layer="-1.00" shape="1412.22,2859.76 1413.93,2854.83 1406.59,2852.29 1413.27,2833.07 1418.83,2834.98 1420.88,2829.09 1480.60,2849.72 1472.18,2873.96 1467.77,2872.44 1465.75,2878.26 1412.22,2859.76"/>
    <poly id="102720100" type="building" color="51,128,255" fill="1" layer="-1.00" shape="1449.21,2823.17 1445.24,2821.88 1445.66,2820.75 1443.79,2820.11 1444.32,2818.72 1439.61,2817.14 1439.14,2818.59 1437.33,2817.99 1436.97,2819.10 1433.00,2817.85 1433.73,2815.56 1430.48,2814.50 1429.75,2816.79 1424.24,2814.97 1424.65,2813.82 1421.39,2812.72 1421.03,2813.87 1417.05,2812.60 1417.42,2811.46 1415.61,2810.87 1416.07,2809.45 1413.62,2808.65 1416.20,2800.67 1418.66,2801.48 1419.12,2800.07 1442.74,2807.76 1442.25,2809.26 1446.87,2810.76 1447.34,2809.35 1470.88,2817.13 1470.45,2818.45 1472.89,2819.24 1470.27,2827.23 1467.81,2826.49 1467.35,2827.83 1465.53,2827.30 1465.19,2828.39 1461.19,2827.13 1461.55,2825.96 1458.30,2824.88 1457.96,2826.05 1452.44,2824.22 1453.23,2821.96 1449.96,2820.87 1449.21,2823.17"/>
    <poly id="102720101" type="building" color="51,128,255" fill="1" layer="-1.00" shape="1464.80,2800.28 1464.59,2797.67 1463.11,2797.80 1461.09,2771.49 1462.59,2771.38 1462.23,2766.50 1460.74,2766.62 1458.78,2740.28 1460.20,2740.17 1460.03,2737.64 1469.57,2736.93 1469.80,2739.47 1471.26,2739.39 1471.57,2743.36 1472.13,2743.35 1472.73,2750.15 1472.18,2750.20 1472.54,2755.37 1471.57,2755.44 1471.80,2758.02 1472.76,2757.94 1473.34,2765.62 1471.81,2765.79 1472.17,2770.62 1473.67,2770.52 1474.24,2778.26 1473.35,2778.31 1473.54,2780.85 1474.44,2780.79 1474.86,2785.99 1475.48,2785.97 1475.95,2792.83 1475.35,2792.85 1475.65,2796.84 1474.17,2796.94 1474.32,2799.59 1464.80,2800.28"/>
    <poly id="102720102" type="building" color="51,128,255" fill="1" layer="-1.00" shape="1424.33,2992.89 1435.77,2959.96 1452.76,2965.82 1451.87,2968.39 1470.94,2974.99 1472.06,2971.75 1487.51,2977.09 1480.37,2997.62 1472.83,2995.02 1438.59,2983.18 1434.05,2996.25 1424.33,2992.89"/>
    <poly id="102720104" type="building" color="51,128,255" fill="1" layer="-1.00" shape="1288.46,2907.62 1293.94,2891.86 1310.37,2897.54 1306.56,2908.49 1303.95,2907.59 1302.28,2912.41 1288.46,2907.62"/>
    <poly id="102720105" type="building" color="51,128,255" fill="1" layer="-1.00" shape="1270.75,2843.16 1270.81,2829.78 1286.69,2829.85 1286.63,2843.23 1270.75,2843.16"/>